test/data/pglib/v23.07/pglib_opf_case5_pjm.m
% IEEE PES Power Grid Library - Optimal Power Flow - v23.07
% Source: https://github.com/power-grid-lib/pglib-opf
% Copyright (c) 2010 IEEE. CC BY 4.0.
function mpc = pglib_opf_case5_pjm
mpc.version = '2';
mpc.baseMVA = 100.0;
mpc.areas = [
  1 4;
];
mpc.bus = [
  1 2   0.0   0.00 0.0 0.0 1 1.0 0.0 230.0 1 1.1 0.9;
  2 1 300.0  98.61 0.0 0.0 1 1.0 0.0 230.0 1 1.1 0.9;
  3 2 300.0  98.61 0.0 0.0 1 1.0 0.0 230.0 1 1.1 0.9;
  4 3 400.0 131.47 0.0 0.0 1 1.0 0.0 230.0 1 1.1 0.9;
  5 2   0.0   0.00 0.0 0.0 1 1.0 0.0 230.0 1 1.1 0.9;
];
mpc.gen = [
  1  20.0 0.0  30.0  -30.0 1.0 100.0 1  40.0 0.0;
  1  85.0 0.0 127.5 -127.5 1.0 100.0 1 170.0 0.0;
  3 260.0 0.0 390.0 -390.0 1.0 100.0 1 520.0 0.0;
  4 100.0 0.0 150.0 -150.0 1.0 100.0 1 200.0 0.0;
  5 300.0 0.0 450.0 -450.0 1.0 100.0 1 600.0 0.0;
];
mpc.gencost = [
  2 0.0 0.0 3 0.0 14.0 0.0;
  2 0.0 0.0 3 0.0 15.0 0.0;
  2 0.0 0.0 3 0.0 30.0 0.0;
  2 0.0 0.0 3 0.0 40.0 0.0;
  2 0.0 0.0 3 0.0 10.0 0.0;
];
mpc.branch = [
  1 2 0.00281 0.0281 0.00712 400.0 400.0 400.0 0.0 0.0 1 -30.0 30.0;
  1 4 0.00304 0.0304 0.00658 426.0 426.0 426.0 0.0 0.0 1 -30.0 30.0;
  1 5 0.00064 0.0064 0.03126 426.0 426.0 426.0 0.0 0.0 1 -30.0 30.0;
  2 3 0.00108 0.0108 0.01852 426.0 426.0 426.0 0.0 0.0 1 -30.0 30.0;
  3 4 0.00297 0.0297 0.00674 426.0 426.0 426.0 0.0 0.0 1 -30.0 30.0;
  4 5 0.00297 0.0297 0.00674 240.0 240.0 240.0 0.0 0.0 1 -30.0 30.0;
];
